Test Cases/dist_opf_case85.m
function [baseMVA,bus,busPmax,busPmin,busQmax,busQmin,busPG,busQG,gen,branch, PBase ,PFBase,busLoadImportant,w_gen] = dist_opf_case85
% DIST_OPF_CASE85 配网测试系统数据 (RTS79 标准格式)
% 自动提取自: 85-Node System Data.xlsx 和 Testbench

[PQ, PV, REF, BUS_I, BUS_TYPE, PD, QD, GS, BS, BUS_AREA, VM, ...
	VA, BASE_KV, VMAX, VMIN, PGMAX,PGMIN,QGMAX,QGMIN,PG,QG,LOLP,LOLE,LOLF,LOLD,EDNS,EENS,...
	LAM_P,LAM_Q,MU_VMAX,MU_VMIN,MU_PMAX,MU_PMIN,MU_QMAX,MU_QMIN] = idx_bus;
[GEN_BUS, GEN_PMAX, GEN_PMIN, GEN_QMAX, GEN_QMIN, GEN_STATUS, ...
	GEN_LAMDA,GEN_MTTF,GEN_PG,GEN_QG,GEN_PFAILURE] = idx_gen;
[F_BUS, T_BUS, BR_R, BR_X, BR_B, RATE, TAP, SHIFT_ANGLE, BR_STATUS, BR_LAMDA,...
	BR_MTTF,TCSC_X, BR_PFAILURE, PF, QF, PT, QT, MU_SF, MU_ST, KT_MAXANGLE_TPST,KT_MINANGLE_TPST,KT_MAX_X_TCSC,KT_MIN_X_TCSC] = idx_brch;
[NEWTON,FDFP_XB,FDFP_BX,DCPF] = idx_powerflow;

%% system MVA base
baseMVA = 100.0000;

%% bus data
bus = [
	1	1	375.6000	123.9480	0	0	1	1.0000	0	12.66	1.10	0.90;
	2	1	74.6000	24.6180	0	0	1	1.0000	0	12.66	1.10	0.90;
	3	1	66.4000	21.9120	0	0	1	1.0000	0	12.66	1.10	0.90;
	4	1	135.8000	44.8140	0	0	1	1.0000	0	12.66	1.10	0.90;
	5	1	485.8000	160.3140	0	0	1	1.0000	0	12.66	1.10	0.90;
	6	1	232.3000	76.6590	0	0	1	1.0000	0	12.66	1.10	0.90;
	7	1	372.5000	122.9250	0	0	1	1.0000	0	12.66	1.10	0.90;
	8	1	97.2000	32.0760	0	0	1	1.0000	0	12.66	1.10	0.90;
	9	1	194.4000	64.1520	0	0	1	1.0000	0	12.66	1.10	0.90;
	10	1	218.7000	72.1710	0	0	1	1.0000	0	12.66	1.10	0.90;
	11	1	182.3000	60.1590	0	0	1	1.0000	0	12.66	1.10	0.90;
	12	1	388.9000	128.3370	0	0	1	1.0000	0	12.66	1.10	0.90;
	13	1	454.6000	150.0180	0	0	1	1.0000	0	12.66	1.10	0.90;
	14	1	474.0000	156.4200	0	0	1	1.0000	0	12.66	1.10	0.90;
	15	1	336.1000	110.9130	0	0	1	1.0000	0	12.66	1.10	0.90;
	16	1	309.9000	102.2670	0	0	1	1.0000	0	12.66	1.10	0.90;
	17	1	622.1000	205.2930	0	0	1	1.0000	0	12.66	1.10	0.90;
	18	1	229.1000	75.6030	0	0	1	1.0000	0	12.66	1.10	0.90;
	19	1	108.8000	35.9040	0	0	1	1.0000	0	12.66	1.10	0.90;
	20	1	48.6000	16.0380	0	0	1	1.0000	0	12.66	1.10	0.90;
	21	1	372.8000	123.0240	0	0	1	1.0000	0	12.66	1.10	0.90;
	22	1	97.3000	32.1090	0	0	1	1.0000	0	12.66	1.10	0.90;
	23	1	372.8000	123.0240	0	0	1	1.0000	0	12.66	1.10	0.90;
	24	1	194.5000	64.1850	0	0	1	1.0000	0	12.66	1.10	0.90;
	25	1	390.1000	128.7330	0	0	1	1.0000	0	12.66	1.10	0.90;
	26	1	92.0000	30.3600	0	0	1	1.0000	0	12.66	1.10	0.90;
	27	1	588.6000	194.2380	0	0	1	1.0000	0	12.66	1.10	0.90;
	28	1	313.2000	103.3560	0	0	1	1.0000	0	12.66	1.10	0.90;
	29	1	201.2000	66.3960	0	0	1	1.0000	0	12.66	1.10	0.90;
	30	1	92.0000	30.3600	0	0	1	1.0000	0	12.66	1.10	0.90;
	31	1	546.7000	180.4110	0	0	1	1.0000	0	12.66	1.10	0.90;
	32	1	138.0000	45.5400	0	0	1	1.0000	0	12.66	1.10	0.90;
	33	1	248.0000	81.8400	0	0	1	1.0000	0	12.66	1.10	0.90;
	34	1	640.3000	211.2990	0	0	1	1.0000	0	12.66	1.10	0.90;
	35	1	540.9000	178.4970	0	0	1	1.0000	0	12.66	1.10	0.90;
	36	1	292.4000	96.4920	0	0	1	1.0000	0	12.66	1.10	0.90;
	37	1	390.9000	128.9970	0	0	1	1.0000	0	12.66	1.10	0.90;
	38	1	121.6000	40.1280	0	0	1	1.0000	0	12.66	1.10	0.90;
	39	1	207.4000	68.4420	0	0	1	1.0000	0	12.66	1.10	0.90;
	40	1	200.0000	66.0000	0	0	1	1.0000	0	12.66	1.10	0.90;
	41	1	99.0000	32.6700	0	0	1	1.0000	0	12.66	1.10	0.90;
	42	1	248.0000	81.8400	0	0	1	1.0000	0	12.66	1.10	0.90;
	43	1	185.6000	61.2480	0	0	1	1.0000	0	12.66	1.10	0.90;
	44	1	98.1000	32.3730	0	0	1	1.0000	0	12.66	1.10	0.90;
	45	1	271.3000	89.5290	0	0	1	1.0000	0	12.66	1.10	0.90;
	46	1	722.2000	238.3260	0	0	1	1.0000	0	12.66	1.10	0.90;
	47	1	414.1000	136.6530	0	0	1	1.0000	0	12.66	1.10	0.90;
	48	1	371.3000	122.5290	0	0	1	1.0000	0	12.66	1.10	0.90;
	49	1	295.8000	97.6140	0	0	1	1.0000	0	12.66	1.10	0.90;
	50	1	172.0000	56.7600	0	0	1	1.0000	0	12.66	1.10	0.90;
	51	1	419.1000	138.3030	0	0	1	1.0000	0	12.66	1.10	0.90;
	52	1	114.7000	37.8510	0	0	1	1.0000	0	12.66	1.10	0.90;
	53	1	407.1000	134.3430	0	0	1	1.0000	0	12.66	1.10	0.90;
	54	1	108.9000	35.9370	0	0	1	1.0000	0	12.66	1.10	0.90;
	55	1	34.4000	11.3520	0	0	1	1.0000	0	12.66	1.10	0.90;
	56	1	640.9000	211.4970	0	0	1	1.0000	0	12.66	1.10	0.90;
	57	1	32.3000	10.6590	0	0	1	1.0000	0	12.66	1.10	0.90;
	58	1	237.1000	78.2430	0	0	1	1.0000	0	12.66	1.10	0.90;
	59	1	347.6000	114.7080	0	0	1	1.0000	0	12.66	1.10	0.90;
	60	1	145.5000	48.0150	0	0	1	1.0000	0	12.66	1.10	0.90;
	61	1	616.3000	203.3790	0	0	1	1.0000	0	12.66	1.10	0.90;
	62	1	357.0000	117.8100	0	0	1	1.0000	0	12.66	1.10	0.90;
	63	1	529.3000	174.6690	0	0	1	1.0000	0	12.66	1.10	0.90;
	64	1	458.8000	151.4040	0	0	1	1.0000	0	12.66	1.10	0.90;
	65	1	188.5000	62.2050	0	0	1	1.0000	0	12.66	1.10	0.90;
	66	1	2290.8000	755.9640	0	0	1	1.0000	0	12.66	1.10	0.90;
	67	1	476.0000	157.0800	0	0	1	1.0000	0	12.66	1.10	0.90;
	68	1	98.6000	32.5380	0	0	1	1.0000	0	12.66	1.10	0.90;
	69	1	296.8000	97.9440	0	0	1	1.0000	0	12.66	1.10	0.90;
	70	1	197.6000	65.2080	0	0	1	1.0000	0	12.66	1.10	0.90;
	71	1	221.8000	73.1940	0	0	1	1.0000	0	12.66	1.10	0.90;
	72	1	339.6000	112.0680	0	0	1	1.0000	0	12.66	1.10	0.90;
	73	1	443.8000	146.4540	0	0	1	1.0000	0	12.66	1.10	0.90;
	74	1	93.1000	30.7230	0	0	1	1.0000	0	12.66	1.10	0.90;
	75	1	79.6000	26.2680	0	0	1	1.0000	0	12.66	1.10	0.90;
	76	1	157.7000	52.0410	0	0	1	1.0000	0	12.66	1.10	0.90;
	77	1	100.3000	33.0990	0	0	1	1.0000	0	12.66	1.10	0.90;
	78	1	838.1000	276.5730	0	0	1	1.0000	0	12.66	1.10	0.90;
	79	1	26.2000	8.6460	0	0	1	1.0000	0	12.66	1.10	0.90;
	80	1	91.6000	30.2280	0	0	1	1.0000	0	12.66	1.10	0.90;
	81	1	711.4000	234.7620	0	0	1	1.0000	0	12.66	1.10	0.90;
	82	1	352.5000	116.3250	0	0	1	1.0000	0	12.66	1.10	0.90;
	83	1	371.6000	122.6280	0	0	1	1.0000	0	12.66	1.10	0.90;
	101	3	0.0000	0.0000	0	0	1	1.0000	0	12.66	1.10	0.90;
	102	3	0.0000	0.0000	0	0	1	1.0000	0	12.66	1.10	0.90;
];

%% Bus Load Importance Data
busLoadImportant = [
	1	0.7000	0.8300	1.0000;
	2	0.7000	0.8300	1.0000;
	3	0.7000	0.8300	1.0000;
	4	0.7000	0.8300	1.0000;
	5	0.7000	0.8300	1.0000;
	6	0.7000	0.8300	1.0000;
	7	0.7000	0.8300	1.0000;
	8	0.7000	0.8300	1.0000;
	9	0.7000	0.8300	1.0000;
	10	0.7000	0.8300	1.0000;
	11	0.7000	0.8300	1.0000;
	12	0.7000	0.8300	1.0000;
	13	0.7000	0.8300	1.0000;
	14	0.7000	0.8300	1.0000;
	15	0.7000	0.8300	1.0000;
	16	0.7000	0.8300	1.0000;
	17	0.7000	0.8300	1.0000;
	18	0.7000	0.8300	1.0000;
	19	0.7000	0.8300	1.0000;
	20	0.7000	0.8300	1.0000;
	21	0.7000	0.8300	1.0000;
	22	0.7000	0.8300	1.0000;
	23	0.7000	0.8300	1.0000;
	24	0.7000	0.8300	1.0000;
	25	0.7000	0.8300	1.0000;
	26	0.7000	0.8300	1.0000;
	27	0.7000	0.8300	1.0000;
	28	0.7000	0.8300	1.0000;
	29	0.7000	0.8300	1.0000;
	30	0.7000	0.8300	1.0000;
	31	0.7000	0.8300	1.0000;
	32	0.7000	0.8300	1.0000;
	33	0.7000	0.8300	1.0000;
	34	0.7000	0.8300	1.0000;
	35	0.7000	0.8300	1.0000;
	36	0.7000	0.8300	1.0000;
	37	0.7000	0.8300	1.0000;
	38	0.7000	0.8300	1.0000;
	39	0.7000	0.8300	1.0000;
	40	0.7000	0.8300	1.0000;
	41	0.7000	0.8300	1.0000;
	42	0.7000	0.8300	1.0000;
	43	0.7000	0.8300	1.0000;
	44	0.7000	0.8300	1.0000;
	45	0.7000	0.8300	1.0000;
	46	0.7000	0.8300	1.0000;
	47	0.7000	0.8300	1.0000;
	48	0.7000	0.8300	1.0000;
	49	0.7000	0.8300	1.0000;
	50	0.7000	0.8300	1.0000;
	51	0.7000	0.8300	1.0000;
	52	0.7000	0.8300	1.0000;
	53	0.7000	0.8300	1.0000;
	54	0.7000	0.8300	1.0000;
	55	0.7000	0.8300	1.0000;
	56	0.7000	0.8300	1.0000;
	57	0.7000	0.8300	1.0000;
	58	0.7000	0.8300	1.0000;
	59	0.7000	0.8300	1.0000;
	60	0.7000	0.8300	1.0000;
	61	0.7000	0.8300	1.0000;
	62	0.7000	0.8300	1.0000;
	63	0.7000	0.8300	1.0000;
	64	0.7000	0.8300	1.0000;
	65	0.7000	0.8300	1.0000;
	66	0.7000	0.8300	1.0000;
	67	0.7000	0.8300	1.0000;
	68	0.7000	0.8300	1.0000;
	69	0.7000	0.8300	1.0000;
	70	0.7000	0.8300	1.0000;
	71	0.7000	0.8300	1.0000;
	72	0.7000	0.8300	1.0000;
	73	0.7000	0.8300	1.0000;
	74	0.7000	0.8300	1.0000;
	75	0.7000	0.8300	1.0000;
	76	0.7000	0.8300	1.0000;
	77	0.7000	0.8300	1.0000;
	78	0.7000	0.8300	1.0000;
	79	0.7000	0.8300	1.0000;
	80	0.7000	0.8300	1.0000;
	81	0.7000	0.8300	1.0000;
	82	0.7000	0.8300	1.0000;
	83	0.7000	0.8300	1.0000;
];

%% generator data
gen = [
	101	100.0000	0.0000	100.0000	-100.0000	1	0.4500	15.0000	0	0	0	0	0	0	0	0	0	0	0	0	0;
    102	100.0000	0.0000	100.0000	-100.0000	1	0.4500	15.0000	0	0	0	0	0	0	0	0	0	0	0	0	0;
];

%% branch data (包含主线路及联络线)
branch = [
	1	2	0.050000	0.020000	0.0000	5.0	0.0000	0.0000	1	0.31696	1.5849	0.0000;
	1	101	0.050000	0.020000	0.0000	5.0	0.0000	0.0000	1	0.68093	1.7096	0.0000;
	2	3	0.050000	0.020000	0.0000	5.0	0.0000	0.0000	1	0.46260	2.1799	0.0000;
	3	4	0.050000	0.020000	0.0000	5.0	0.0000	0.0000	1	0.06796	2.4887	0.0000;
	4	5	0.050000	0.020000	0.0000	5.0	0.0000	0.0000	1	0.55968	1.7341	0.0000;
	5	6	0.050000	0.020000	0.0000	5.0	0.0000	0.0000	1	0.01132	2.1330	0.0000;
	6	7	0.050000	0.020000	0.0000	5.0	0.0000	0.0000	1	0.73436	2.2816	0.0000;
	7	8	0.050000	0.020000	0.0000	5.0	0.0000	0.0000	1	0.22654	2.4252	0.0000;
	7	9	0.050000	0.020000	0.0000	5.0	0.0000	0.0000	1	0.20955	2.1785	0.0000;
	7	10	0.050000	0.020000	0.0000	5.0	0.0000	0.0000	1	0.23558	2.3554	0.0000;
	11	12	0.050000	0.020000	0.0000	5.0	0.0000	0.0000	1	0.06148	2.0038	0.0000;
	11	101	0.050000	0.020000	0.0000	5.0	0.0000	0.0000	1	0.22219	1.5370	0.0000;
	12	13	0.050000	0.020000	0.0000	5.0	0.0000	0.0000	1	0.17990	2.2791	0.0000;
	12	14	0.050000	0.020000	0.0000	5.0	0.0000	0.0000	1	0.38796	1.7453	0.0000;
	15	16	0.050000	0.020000	0.0000	5.0	0.0000	0.0000	1	0.06683	2.1939	0.0000;
	15	101	0.050000	0.020000	0.0000	5.0	0.0000	0.0000	1	0.25674	2.1252	0.0000;
	16	17	0.050000	0.020000	0.0000	5.0	0.0000	0.0000	1	0.22701	2.1343	0.0000;
	17	18	0.050000	0.020000	0.0000	5.0	0.0000	0.0000	1	0.03208	1.7349	0.0000;
	18	19	0.050000	0.020000	0.0000	5.0	0.0000	0.0000	1	0.13278	1.6011	0.0000;
	19	20	0.050000	0.020000	0.0000	5.0	0.0000	0.0000	1	0.33414	1.9194	0.0000;
	20	21	0.050000	0.020000	0.0000	5.0	0.0000	0.0000	1	0.00189	1.6379	0.0000;
	21	22	0.050000	0.020000	0.0000	5.0	0.0000	0.0000	1	0.22465	2.0363	0.0000;
	21	23	0.050000	0.020000	0.0000	5.0	0.0000	0.0000	1	0.67185	1.7604	0.0000;
	23	24	0.050000	0.020000	0.0000	5.0	0.0000	0.0000	1	0.38512	1.7141	0.0000;
	25	26	0.050000	0.020000	0.0000	5.0	0.0000	0.0000	1	0.33226	2.4438	0.0000;
	25	101	0.050000	0.020000	0.0000	5.0	0.0000	0.0000	1	0.38572	2.2674	0.0000;
	26	27	0.050000	0.020000	0.0000	5.0	0.0000	0.0000	1	0.33037	1.7843	0.0000;
	27	28	0.050000	0.020000	0.0000	5.0	0.0000	0.0000	1	0.17179	2.3692	0.0000;
	28	29	0.050000	0.020000	0.0000	5.0	0.0000	0.0000	1	0.25271	2.2218	0.0000;
	30	31	0.050000	0.020000	0.0000	5.0	0.0000	0.0000	1	0.04720	1.9750	0.0000;
	30	101	0.050000	0.020000	0.0000	5.0	0.0000	0.0000	1	0.23265	2.2739	0.0000;
	31	32	0.050000	0.020000	0.0000	5.0	0.0000	0.0000	1	0.35018	1.6282	0.0000;
	32	33	0.050000	0.020000	0.0000	5.0	0.0000	0.0000	1	0.19247	2.2439	0.0000;
	33	34	0.050000	0.020000	0.0000	5.0	0.0000	0.0000	1	0.25700	2.4905	0.0000;
	34	35	0.050000	0.020000	0.0000	5.0	0.0000	0.0000	1	0.06148	1.5945	0.0000;
	35	36	0.050000	0.020000	0.0000	5.0	0.0000	0.0000	1	0.25700	2.4600	0.0000;
	36	37	0.050000	0.020000	0.0000	5.0	0.0000	0.0000	1	0.01132	1.9145	0.0000;
	37	38	0.050000	0.020000	0.0000	5.0	0.0000	0.0000	1	0.42100	2.2858	0.0000;
	38	39	0.050000	0.020000	0.0000	5.0	0.0000	0.0000	1	0.06886	1.5070	0.0000;
	38	41	0.050000	0.020000	0.0000	5.0	0.0000	0.0000	1	0.44176	2.4262	0.0000;
	39	40	0.050000	0.020000	0.0000	5.0	0.0000	0.0000	1	0.16705	1.6572	0.0000;
	41	42	0.050000	0.020000	0.0000	5.0	0.0000	0.0000	1	0.11993	1.8664	0.0000;
	43	44	0.050000	0.020000	0.0000	5.0	0.0000	0.0000	1	0.03206	1.9462	0.0000;
	43	101	0.050000	0.020000	0.0000	5.0	0.0000	0.0000	1	0.65320	1.7691	0.0000;
	44	45	0.050000	0.020000	0.0000	5.0	0.0000	0.0000	1	0.33414	1.9896	0.0000;
	45	46	0.050000	0.020000	0.0000	5.0	0.0000	0.0000	1	0.11565	1.7348	0.0000;
	47	48	0.050000	0.020000	0.0000	5.0	0.0000	0.0000	1	0.18846	2.4759	0.0000;
	47	102	0.050000	0.020000	0.0000	5.0	0.0000	0.0000	1	0.04531	1.7459	0.0000;
	48	49	0.050000	0.020000	0.0000	5.0	0.0000	0.0000	1	0.22701	2.2120	0.0000;
	49	50	0.050000	0.020000	0.0000	5.0	0.0000	0.0000	1	0.14992	1.5160	0.0000;
	50	51	0.050000	0.020000	0.0000	5.0	0.0000	0.0000	1	0.09423	1.5001	0.0000;
	51	52	0.050000	0.020000	0.0000	5.0	0.0000	0.0000	1	0.13970	2.2415	0.0000;
	52	53	0.050000	0.020000	0.0000	5.0	0.0000	0.0000	1	0.00755	2.3328	0.0000;
	53	54	0.050000	0.020000	0.0000	5.0	0.0000	0.0000	1	0.06230	1.5432	0.0000;
	54	55	0.050000	0.020000	0.0000	5.0	0.0000	0.0000	1	0.11516	2.0882	0.0000;
	56	57	0.050000	0.020000	0.0000	5.0	0.0000	0.0000	1	0.56039	2.2187	0.0000;
	56	102	0.050000	0.020000	0.0000	5.0	0.0000	0.0000	1	0.22260	1.8119	0.0000;
	57	58	0.050000	0.020000	0.0000	5.0	0.0000	0.0000	1	0.16036	2.3919	0.0000;
	58	59	0.050000	0.020000	0.0000	5.0	0.0000	0.0000	1	0.04531	2.2009	0.0000;
	59	60	0.050000	0.020000	0.0000	5.0	0.0000	0.0000	1	0.02643	1.8861	0.0000;
	60	61	0.050000	0.020000	0.0000	5.0	0.0000	0.0000	1	0.06041	1.8770	0.0000;
	61	62	0.050000	0.020000	0.0000	5.0	0.0000	0.0000	1	0.03020	2.1999	0.0000;
	62	63	0.050000	0.020000	0.0000	5.0	0.0000	0.0000	1	0.02076	1.6314	0.0000;
	63	64	0.050000	0.020000	0.0000	5.0	0.0000	0.0000	1	0.10950	2.4337	0.0000;
	65	66	0.050000	0.020000	0.0000	5.0	0.0000	0.0000	1	0.11893	2.4088	0.0000;
	65	102	0.050000	0.020000	0.0000	5.0	0.0000	0.0000	1	0.42076	2.0127	0.0000;
	66	67	0.050000	0.020000	0.0000	5.0	0.0000	0.0000	1	0.96672	1.8385	0.0000;
	67	68	0.050000	0.020000	0.0000	5.0	0.0000	0.0000	1	0.45876	2.0591	0.0000;
	68	69	0.050000	0.020000	0.0000	5.0	0.0000	0.0000	1	0.70040	1.7062	0.0000;
	69	70	0.050000	0.020000	0.0000	5.0	0.0000	0.0000	1	0.46064	2.0219	0.0000;
	70	71	0.050000	0.020000	0.0000	5.0	0.0000	0.0000	1	0.14285	2.3485	0.0000;
	71	72	0.050000	0.020000	0.0000	5.0	0.0000	0.0000	1	0.54331	2.2627	0.0000;
	73	74	0.050000	0.020000	0.0000	5.0	0.0000	0.0000	1	0.14372	1.8202	0.0000;
	73	102	0.050000	0.020000	0.0000	5.0	0.0000	0.0000	1	0.23986	1.5763	0.0000;
	74	75	0.050000	0.020000	0.0000	5.0	0.0000	0.0000	1	0.12282	1.8860	0.0000;
	75	76	0.050000	0.020000	0.0000	5.0	0.0000	0.0000	1	0.18111	1.8633	0.0000;
	77	78	0.050000	0.020000	0.0000	5.0	0.0000	0.0000	1	0.22439	2.1787	0.0000;
	77	102	0.050000	0.020000	0.0000	5.0	0.0000	0.0000	1	0.09817	1.8666	0.0000;
	78	79	0.050000	0.020000	0.0000	5.0	0.0000	0.0000	1	0.16235	1.9693	0.0000;
	79	80	0.050000	0.020000	0.0000	5.0	0.0000	0.0000	1	0.21385	2.4440	0.0000;
	80	81	0.050000	0.020000	0.0000	5.0	0.0000	0.0000	1	0.22454	1.6728	0.0000;
	81	82	0.050000	0.020000	0.0000	5.0	0.0000	0.0000	1	0.16574	2.0725	0.0000;
	82	83	0.050000	0.020000	0.0000	5.0	0.0000	0.0000	1	0.36662	1.6700	0.0000;
	9	55	0.050000	0.020000	0.0000	5.0	0.0000	0.0000	0	0.20000	5.0000	0.0000;
	13	64	0.050000	0.020000	0.0000	5.0	0.0000	0.0000	0	0.20000	5.0000	0.0000;
	24	72	0.050000	0.020000	0.0000	5.0	0.0000	0.0000	0	0.20000	5.0000	0.0000;
	29	76	0.050000	0.020000	0.0000	5.0	0.0000	0.0000	0	0.20000	5.0000	0.0000;
	42	83	0.050000	0.020000	0.0000	5.0	0.0000	0.0000	0	0.20000	5.0000	0.0000;
];

branch(:, 13:23) = 0;

%%-----  OPF Data  -----%%
gencost = [ 2 1500 0 3 0.11 5 150; ];
w_gen = 1.05 * ones(size(gen, 1), 1);

%% 数据转换与标幺化计算
rate = 1.00;
bus(:,3) = (rate .* bus(:,3)) / 1000; % kW -> MW
bus(:,4) = (rate .* bus(:,4)) / 1000; % kVAr -> MVAR

Vbase = bus(1, 10); 
Zbase = (Vbase^2) / baseMVA;
branch(:, 3) = branch(:, 3) / Zbase; % R p.u.
branch(:, 4) = branch(:, 4) / Zbase; % X p.u.

gen(:,2:5) = rate.*gen(:,2:5);
gen(:,9:10) = rate.*gen(:,9:10);

bus(:,13:32) = 0;
busPmax = zeros(size(bus,1),1); busPmin = zeros(size(bus,1),1); busPG = zeros(size(bus,1),1);
busQmax = zeros(size(bus,1),1); busQmin = zeros(size(bus,1),1); busQG = zeros(size(bus,1),1);

gen(:,11) = 1-8760./(gen(:,7).*gen(:,8)+8760);

for i=1:size(bus,1)
    genindex = find(gen(:,1) == i);
    if(~isempty(genindex))
        busPmax(i) = sum(gen(genindex,2)); busPmin(i) = sum(gen(genindex,3)); busPG(i)   = sum(gen(genindex,9));
        busQmax(i) = sum(gen(genindex,4)); busQmin(i) = sum(gen(genindex,5)); busQG(i)   = sum(gen(genindex,10));
    end
end

bus(:,13) = busPmax; bus(:,14) = busPmin; bus(:,15) = busQmax;
bus(:,16) = busQmin; bus(:,17) = busPG; bus(:,18) = busQG;

branch(:,13) = 1-8760./(branch(:,10).*branch(:,11)+8760);
branch(:,14:23) = 0.0;

PBase = prod(1-gen(:,11)) * prod(1-branch(:,13));
PFBase = sum(gen(:,7)) + sum(branch(:,10));

end
